FoamFile {
    version     2.0;
    format      ascii;
    class       dictionary;
    location    "constant";
    object	tracerFieldDict;
}

type		gaussian;
centre		(-50e3 0 0);
width		10e3;
