FoamFile {
    version     2.0;
    format      ascii;
    class       dictionary;
    location    "constant";
    object      velocityFieldDict;
}

type			btf;
speed			10;
domainHeight		10e3;

mountain
{
	type		schaerCos;
	halfWidth	25e3;
	peakHeight	4e3;
	wavelength	8e3;
}
