FoamFile {
    version     2.0;
    format      ascii;
    class       dictionary;
    location    "system";
    object      fvSolution;
}

solvers {
    p {
        solver          PCG;
        preconditioner  DIC;
        tolerance       1e-08
        relTol          0;
    }
}

SIMPLE {
    nNonOrthogonalCorrectors 1;
}
