/*--------------------------------*- C++ -*----------------------------------*\
| =========                 |                                                 |
| \\      /  F ield         | OpenFOAM: The Open Source CFD Toolbox           |
|  \\    /   O peration     | Version:  1.5                                   |
|   \\  /    A nd           | Web:      http://www.OpenFOAM.org               |
|    \\/     M anipulation  |                                                 |
\*---------------------------------------------------------------------------*/
FoamFile
{
    version     2.0;
    format      ascii;
    class       dictionary;
    object      fvSolution;
}
// * * * * * * * * * * * * * * * * * * * * * * * * * * * * * * * * * * * * * //

solvers
{
    rho
    {
        solver PCG;
        preconditioner   DIC;
        tolerance        0;
        relTol           0;
    };
    Exner
    {
        solver PCG;
        preconditioner DIC;
//        solver           GAMG;
        tolerance        1e-12;
        relTol           0.001;
//        smoother         GaussSeidel;
//        cacheAgglomeration true;
//        nCellsInCoarsestLevel 10;
//        agglomerator     faceAreaPair;
//        mergeLevels      1;
//        maxIter          100;
    }

    ExnerFinal
    {
        $Exner;
        tolerance        1e-12;
        relTol           0;
    }
    
    theta
    {
        solver PBiCG;
        preconditioner   DILU;
        tolerance        1e-8;
        relTol           0;
    }
}

iterations
{
    nOuterCorrectors 2;
    nCorrectors     1;
    nNonOrthogonalCorrectors 0;
    nAdvectionSubSteps 1;
}

// ************************************************************************* //
