FoamFile {
    version     2.0;
    format      ascii;
    class       dictionary;
    location    "constant";
    object      mountainDict;
}

domainHeight		5e3;
mountainType            SchaerExpMountain;
mountainHalfWidth	5e3;
mountainPeakHeight	1000;
mountainWavelength	4e3;
tolerance		50;
