FoamFile {
    version     2.0;
    format      ascii;
    class       dictionary;
    location    "constant";
    object      velocityFieldDict;
}
    
velocityProfile		SCHAER_EXP;
maxVelocity		    10;
domainHeight		20e3;
mountainHalfWidth	5e3;
mountainPeakHeight	250;
mountainWavelength	4e3;
