FoamFile
{
    version         2.0;
    format          ascii;

    root            "/home/dm2/hilary/foam/hilary2.3/run/cosineBell";
    case            "WilliamsonAlpha0";
    instance        "constant";
    local           "";

    class           dictionary;
    object          earthProperties;
}

earthRadius  earthRadius [0 1 0 0 0]   6372200;
linearRadialCoeffs{R 6372200; Rsurface 6370200;};
nLayers 1;
nLat 73;
nLon 144;
polarCell false;

