FoamFile {
    version     2.0;
    format      ascii;
    class       dictionary;
    location    "system";
    object      decomposeParDict;
}

numberOfSubdomains $taskCount;
method simple;

simpleCoeffs {
	n	($taskCount 1 1);
	delta	0.001;
}
