FoamFile {
    version     2.0;
    format      ascii;
    class       dictionary;
    location    "constant";
    object      add2dMountainDict;
}

mountainType ScharExp;
coordSys BTF;

// top of coordinate system (at or below domain height)
zt 20e3;
// horizontal scale of large scale mountains
a 5e3;
// mountain height
hm 250;
// horizontal scale for fine scale mountains (for Schar test case)
lambda 4e3;
