FoamFile {
    version     2.0;
    format      ascii;
    class       dictionary;
    location    "constant";
    object      mountainDict;
}

domainHeight		20e3;
mountainType            SchaerExpMountain;
mountainHalfWidth	5e3;
mountainPeakHeight	1e3;
mountainWavelength	4e3;
tolerance		100;
