FoamFile {
    version     2.0;
    format      ascii;
    class       dictionary;
    location    "system";
    object      fvSchemes;
}

divSchemes {
    default      none;
    div(phi,T)   Gauss cubicUpwindCPCFit Cartesian;
    div(phi,T_0) Gauss cubicUpwindCPCFit Cartesian;
}

gradSchemes {
    default     none;
}

snGradSchemes {
    default     none;
}

laplacianSchemes {
    default     none;
}

ddtSchemes {
    default     none;
}

fluxRequired {
    default     no;
}
