FoamFile {
    version     2.0;
    format      ascii;
    class       dictionary;
    location    "system";
    object      fvSchemes;
}

divSchemes {
    default     none;
    div(phi,T)  Gauss linearUpwind grad(T);
    div(phi,T_0) Gauss linearUpwind grad(T);
}

gradSchemes {
    default     none;
    grad(T)	Gauss linear;
}

snGradSchemes {
    default     none;
}

laplacianSchemes {
    default     none;
}

ddtSchemes {
    default     none;
}

fluxRequired {
    default     no;
}
