FoamFile {
    version     2.0;
    format      ascii;
    class       dictionary;
    location    "constant";
    object      velocityFieldDict;
}

velocityProfileType     HorizontalVelocityProfile;
maxVelocity		10;
zeroVelocityHeight	7000;
maxVelocityHeight	8000;
