FoamFile {
    version     2.0;
    format      ascii;
    class       dictionary;
    location    "constant";
    object      add2dMountainDict;
}

mountainType earthMountain;
coordSys BTF;
domainHeight 25e3;
filename "/home/jshaw/terrain/030363012518617/ASTGTM2_N47E010_dem.tif";
xResolution 100;
