FoamFile {
    version     2.0;
    format      ascii;
    class       dictionary;
    location    "constant";
    object      add2dMountainDict;
}

mountainType SchaerCosMountain;

domainHeight		25e3;
mountainHalfWidth	25e3;
mountainPeakHeight	6e3;
mountainWavelength	8e3;

