FoamFile {
    version     2.0;
    format      ascii;
    class       dictionary;
    location    "constant";
    object      mountainDict;
}

domainHeight		25e3;
mountainType            SchaerCosMountain;
mountainHalfWidth	25e3;
mountainPeakHeight	6e3;
mountainWavelength	8e3;
tolerance		0;
