FoamFile {
    version     2.0;
    format      ascii;
    class       dictionary;
    location    "constant";
    object	setScalarOverOrographyDict;
}

type		schaerRadial;
centre		(-50e3 0 12e3);
