FoamFile {
    version     2.0;
    format      ascii;
    class       dictionary;
    location    "constant";
    object      velocityFieldDict;
}

type			horizontal;
zeroVelocityHeight	7e3;
maxVelocityHeight	8e3;
